[TITLE]
Export input file via plugin ImportEpanetInpFiles. 

[JUNCTIONS]
 1                                    44.9046  ;NULL
 11                                   38.3133  ;NULL
 30                                   34.9985  ;NULL
 33                                   42.5166  ;NULL
 35                                   39.5344  ;NULL
 51                                   44.7297  ;NULL
 64                                   40.0953  ;NULL
 66                                   33.3585  ;NULL
 68                                   44.7858  ;NULL
 71                                   41.6891  ;NULL
 78                                   27.8630  ;NULL
 83                                   27.9341  ;NULL
 90                                   41.0447  ;NULL
 97                                   27.4972  ;NULL
 100                                  29.6279  ;NULL
 103                                  40.8453  ;NULL
 105                                  32.7029  ;NULL
 106                                  46.8139  ;NULL
 110                                  26.8609  ;NULL
 115                                  26.6279  ;NULL
 116                                  37.6728  ;NULL
 136                                  30.8440  ;NULL
 160                                  38.1186  ;NULL
 165                                  27.6663  ;NULL
 179                                  32.5479  ;NULL
 181                                  38.6199  ;NULL
 183                                  30.9592  ;NULL
 195                                  45.5287  ;NULL
 209                                  44.8216  ;NULL
 219                                  25.6827  ;NULL
 223                                  32.0840  ;NULL
 225                                  38.6298  ;NULL
 231                                  31.9777  ;NULL
 273                                  34.4966  ;NULL
 275                                  31.5784  ;NULL
 284                                  42.8054  ;NULL
 288                                  40.8706  ;NULL
 289                                  38.2158  ;NULL
 295                                  40.1523  ;NULL
 306                                  47.7929  ;NULL
 310                                  39.7646  ;NULL
 312                                  30.6834  ;NULL
 330                                  40.9712  ;NULL
 337                                  47.4150  ;NULL
 341                                  29.7474  ;NULL
 342                                  32.7845  ;NULL
 348                                  44.8275  ;NULL
 354                                  28.9213  ;NULL
 356                                  47.1555  ;NULL
 361                                  46.9499  ;NULL
 376                                  47.0384  ;NULL
 379                                  28.0237  ;NULL
 383                                  38.8366  ;NULL
 394                                  43.2397  ;NULL
 398                                  47.2081  ;NULL
 399                                  41.9837  ;NULL
 406                                  47.1970  ;NULL
 408                                  26.3850  ;NULL
 412                                  32.9427  ;NULL
 415                                  46.8728  ;NULL
 417                                  40.6423  ;NULL
 420                                  34.8072  ;NULL
 424                                  24.1252  ;NULL
 426                                  42.8678  ;NULL
 439                                  24.4629  ;NULL
 443                                  39.4918  ;NULL
 446                                  39.3475  ;NULL
 458                                  33.0587  ;NULL
 470                                  44.8774  ;NULL
 473                                  47.9855  ;NULL
 485                                  44.8384  ;NULL
 490                                  27.3301  ;NULL
 494                                  44.6854  ;NULL
 504                                  41.4989  ;NULL
 521                                  25.0900  ;NULL
 523                                  35.6675  ;NULL
 525                                  35.3257  ;NULL
 532                                  43.9780  ;NULL
 546                                  43.4579  ;NULL
 555                                  50.0388  ;NULL
 559                                  29.4863  ;NULL
 585                                  27.9620  ;NULL
 592                                  41.9834  ;NULL
 593                                  27.9620  ;NULL
 606                                  48.5948  ;NULL
 616                                  26.4847  ;NULL
 622                                  31.0449  ;NULL
 628                                  49.7067  ;NULL
 631                                  41.0665  ;NULL
 632                                  48.5367  ;NULL
 648                                  36.0843  ;NULL
 650                                  30.2842  ;NULL
 655                                  29.7092  ;NULL
 656                                  29.7092  ;NULL
 679                                  39.4896  ;NULL
 680                                  34.6397  ;NULL
 681                                  28.5963  ;NULL
 688                                  53.0145  ;NULL
 701                                  52.7635  ;NULL
 707                                  42.3481  ;NULL
 708                                  37.8774  ;NULL
 745                                  42.7870  ;NULL
 759                                  50.9633  ;NULL
 772                                  41.1400  ;NULL
 787                                  34.3258  ;NULL
 789                                  27.6919  ;NULL
 806                                  38.4995  ;NULL
 819                                  32.2963  ;NULL
 830                                  37.7233  ;NULL
 839                                  43.3456  ;NULL
 852                                  32.2758  ;NULL
 865                                  52.7890  ;NULL
 885                                  30.9825  ;NULL
 889                                  41.0805  ;NULL
 891                                  30.3077  ;NULL
 896                                  35.1235  ;NULL
 908                                  30.3549  ;NULL
 931                                  29.6896  ;NULL
 932                                  56.7959  ;NULL
 989                                  28.2027  ;NULL
 993                                  37.4268  ;NULL
 996                                  50.4585  ;NULL
 998                                  33.5171  ;NULL
 999                                  31.9700  ;NULL
 1001                                 49.9351  ;NULL
 1003                                 31.0460  ;NULL
 1020                                 48.5260  ;NULL
 1025                                 35.5034  ;NULL
 1028                                 61.1689  ;NULL
 1031                                 46.4292  ;NULL
 1039                                 53.9666  ;NULL
 1075                                 49.2157  ;NULL
 1081                                 51.3432  ;NULL
 1126                                 43.0044  ;NULL
 1130                                 53.7182  ;NULL
 1144                                 52.2791  ;NULL
 1155                                 59.4760  ;NULL
 1165                                 36.8314  ;NULL
 1168                                 38.2450  ;NULL
 1179                                 37.9072  ;NULL
 1185                                 46.6450  ;NULL
 1196                                 53.3723  ;NULL
 1202                                 53.0405  ;NULL
 1214                                 50.9270  ;NULL
 1225                                 40.7862  ;NULL
 1226                                 56.2809  ;NULL
 1229                                 55.9935  ;NULL
 1241                                 54.0840  ;NULL
 1245                                 54.0840  ;NULL
 1252                                 36.5037  ;NULL
 1255                                 50.8989  ;NULL
 1268                                 58.1542  ;NULL
 1272                                 50.7987  ;NULL
 1283                                 48.6859  ;NULL
 1284                                 55.1892  ;NULL
 1287                                 50.2569  ;NULL
 1292                                 46.9606  ;NULL
 1294                                 39.1205  ;NULL
 1303                                 60.1570  ;NULL
 1304                                 37.7199  ;NULL
 1308                                 57.2239  ;NULL
 1309                                 60.3732  ;NULL
 1311                                 60.5419  ;NULL
 1313                                 30.9535  ;NULL
 1332                                 39.1129  ;NULL
 1339                                 39.7259  ;NULL
 1343                                 40.1201  ;NULL
 1345                                 57.2805  ;NULL
 1346                                 40.4456  ;NULL
 1363                                 54.7319  ;NULL
 1367                                 54.9310  ;NULL
 1369                                 40.9637  ;NULL
 1371                                 54.0636  ;NULL
 1372                                 53.6185  ;NULL
 1406                                 60.5196  ;NULL
 1413                                 46.8889  ;NULL
 1443                                 29.4634  ;NULL
 1446                                 39.2882  ;NULL
 1454                                 43.7762  ;NULL
 1455                                 47.6407  ;NULL
 1459                                 54.4925  ;NULL
 1464                                 53.1857  ;NULL
 1468                                 41.8567  ;NULL
 1471                                 41.7133  ;NULL
 1472                                 41.7133  ;NULL
 1496                                 48.3790  ;NULL
 1499                                 60.2309  ;NULL
 1502                                 45.3327  ;NULL
 1511                                 57.9920  ;NULL
 1522                                 38.0948  ;NULL
 1528                                 55.8523  ;NULL
 1539                                 54.3923  ;NULL
 1550                                 42.4951  ;NULL
 1557                                 52.8167  ;NULL
 1568                                 51.6012  ;NULL
 1607                                 38.7342  ;NULL
 1608                                 48.5031  ;NULL
 1611                                 53.5810  ;NULL
 1622                                 47.3971  ;NULL
 1634                                 52.0305  ;NULL
 1636                                 42.6260  ;NULL
 1656                                 50.5984  ;NULL
 1687                                 28.7675  ;NULL
 1689                                 38.8511  ;NULL
 1694                                 34.4048  ;NULL
 1702                                 51.4711  ;NULL
 1722                                 58.8489  ;NULL
 1723                                 49.8668  ;NULL
 1740                                 42.6159  ;NULL
 1741                                 57.3208  ;NULL
 1765                                 55.1422  ;NULL
 1768                                 30.2299  ;NULL
 1769                                 30.2639  ;NULL
 1770                                 40.2585  ;NULL
 1786                                 29.7674  ;NULL
 1788                                 52.9070  ;NULL
 1801                                 46.9169  ;NULL
 1802                                 38.5689  ;NULL
 1808                                 58.1493  ;NULL
 1812                                 32.6888  ;NULL
 1829                                 44.4734  ;NULL
 1840                                 54.7464  ;NULL
 1843                                 54.8341  ;NULL
 1850                                 53.4263  ;NULL
 1854                                 35.2252  ;NULL
 1869                                 50.2970  ;NULL
 1876                                 27.5012  ;NULL
 1877                                 40.2479  ;NULL
 1878                                 29.4137  ;NULL
 1887                                 41.9888  ;NULL
 1892                                 42.5352  ;NULL
 1893                                 27.2930  ;NULL
 1900                                 44.1901  ;NULL
 1901                                 29.4679  ;NULL
 1903                                 44.7870  ;NULL
 1906                                 46.0199  ;NULL
 1915                                 47.6338  ;NULL
 1924                                 37.7610  ;NULL
 1931                                 34.3322  ;NULL
 1936                                 37.0560  ;NULL
 1944                                 38.4651  ;NULL
 1962                                 43.2149  ;NULL
 1973                                 53.5440  ;NULL
 1975                                 49.1289  ;NULL
 1978                                 54.5702  ;NULL
 1979                                 51.4095  ;NULL
 1984                                 52.3645  ;NULL
 1987                                 52.2466  ;NULL
 1988                                 53.8343  ;NULL
 412_new                              32.9427

[RESERVOIRS]
 R-230                                58.1540  P-R-230                        ;60,536409999999997

[TANKS]

[PIPES]
 1                               1769                            1786                                 28.2925     100.0000     140.0000       0.0000        ;NULL
 2                               1768                            1769                                  1.0757     100.0000     140.0000       0.0000        ;NULL
 3                               891                             908                                   9.6438     100.0000     140.0000       0.0000        ;NULL
 4                               78                              83                                   20.9961     100.0000     140.0000       0.0000        ;NULL
 5                               110                             115                                  11.1679     100.0000     140.0000       0.0000        ;NULL
 6                               1607                            1689                                 53.3925     100.0000     140.0000       0.0000        ;NULL
 7                               996                             1001                                 21.3063     100.0000     140.0000       0.0000        ;NULL
 8                               446                             443                                  14.8284     100.0000     140.0000       0.0000        ;NULL
 9                               458                             412                                  34.3359     100.0000     140.0000       0.0000        ;NULL
 10                              426                             399                                  17.0184     100.0000     140.0000       0.0000        ;NULL
 11                              1722                            1741                                 53.4915     100.0000     140.0000       0.0000        ;NULL
 12                              424                             439                                  15.4817     100.0000     140.0000       0.0000        ;NULL
 13                              585                             593                                   3.7069     100.0000     140.0000       0.0000        ;NULL
 14                              655                             656                                   0.6531     100.0000     140.0000       0.0000        ;NULL
 15                              1339                            1332                                 25.1853     100.0000     140.0000       0.0000        ;NULL
 16                              1346                            1339                                 14.6896     100.0000     140.0000       0.0000        ;NULL
 17                              1471                            1472                                  0.8122     100.0000     140.0000       0.0000        ;NULL
 18                              1877                            1944                                 43.8126     100.0000     140.0000       0.0000        ;NULL
 19                              1367                            1363                                  3.6072     200.0000     140.0000       0.0000        ;NULL
 20                              223                             231                                   8.1243      99.4000     140.0000       0.0000        ;NULL
 21                              356                             306                                  29.5572     144.6000     140.0000       0.0000        ;NULL
 22                              1303                            1309                                  6.1455     203.4000     140.0000       0.0000        ;NULL
 23                              1309                            1311                                  2.0603     203.4000     140.0000       0.0000        ;NULL
 24                              525                             523                                   2.7992     100.0000     140.0000       0.0000        ;NULL
 25                              356                             376                                   9.4412     144.6000     140.0000       0.0000        ;NULL
 26                              1245                            1241                                  2.9179      40.0000     140.0000       0.0000        ;NULL
 27                              546                             532                                  56.4744     150.0000     140.0000       0.0000        ;NULL
 28                              1840                            1765                                 39.9503     150.0000     140.0000       0.0000        ;NULL
 29                              1229                            1226                                  4.2895     150.0000     140.0000       0.0000        ;NULL
 30                              1840                            1843                                  2.6326     150.0000     140.0000       0.0000        ;NULL
 32                              71                              103                                  36.8594     100.0000     140.0000       0.0000        ;NULL
 33                              356                             361                                   7.8644     144.6000     140.0000       0.0000        ;NULL
 34                              376                             398                                   9.8851     144.6000     140.0000       0.0000        ;NULL
 35                              1028                            1268                                173.3528     203.4000     140.0000       0.0000        ;NULL
 36                              1168                            1179                                  9.1688      99.4000     140.0000       0.0000        ;NULL
 37                              1255                            1272                                 11.1535     100.0000     140.0000       0.0000        ;NULL
 38                              1255                            1283                                 82.2323     100.0000     140.0000       0.0000        ;NULL
 39                              1268                            1303                                 35.1815     203.4000     140.0000       0.0000        ;NULL
 40                              1283                            1292                                 59.7608     100.0000     140.0000       0.0000        ;NULL
 41                              1303                            1345                                100.5644     100.0000     140.0000       0.0000        ;NULL
 42                              1311                            1406                                 90.1040      99.4000     140.0000       0.0000        ;NULL
 43                              1371                            1372                                  7.3648     150.0000     140.0000       0.0000        ;NULL
 44                              1406                            1499                                 60.1268     100.0000     140.0000       0.0000        ;NULL
 45                              1468                            1471                                  5.6147     100.0000     140.0000       0.0000        ;NULL
 46                              1634                            1656                                 54.4306     100.0000     140.0000       0.0000        ;NULL
 47                              1722                            1808                                 53.4601     100.0000     140.0000       0.0000        ;NULL
 48                              1878                            1901                                  9.5940      99.4000     140.0000       0.0000        ;NULL
 49                              1924                            1936                                 21.3868      99.4000     140.0000       0.0000        ;NULL
 50                              1854                            1931                                 51.6833      99.4000     140.0000       0.0000        ;NULL
 51                              1973                            1984                                 40.0132     200.0000     140.0000       0.0000        ;NULL
 52                              1984                            1987                                  8.5205     200.0000     140.0000       0.0000        ;NULL
 284                             R-230                           1268                                 25.7685     250.0000     140.0000       0.0000        ;NULL
 313                             1893                            1876                                  6.3856     144.6000     140.0000       0.0000        ;NULL
 1016                            819                             852                                  15.6798     100.0000     140.0000       0.0000 CLOSED ;NULL
 1022                            650                             655                                  20.8210     100.0000     140.0000       0.0000 CLOSED ;NULL
 1920                            1768                            1769                                  1.0757     100.0000     140.0000       0.0000        ;NULL
 p-2                             11                              35                                   42.4762     100.0000     140.0000       0.0000        ;NULL
 p-6                             11                              30                                   98.3777     200.0000     140.0000       0.0000        ;NULL
 p-21                            30                              116                                 234.7584     100.0000     140.0000       0.0000        ;NULL
 p-30                            11                              1                                   173.4385     200.0000     140.0000       0.0000        ;NULL
 p-33                            1                               106                                 269.5822     203.4000     140.0000       0.0000        ;NULL
 p-44                            33                              35                                   97.4845     100.0000     140.0000       0.0000        ;NULL
 p-48                            33                              71                                   61.0601     100.0000     140.0000       0.0000        ;NULL
 p-64                            33                              51                                  171.1911     100.0000     140.0000       0.0000        ;NULL
 p-65                            35                              64                                   48.0438     100.0000     140.0000       0.0000        ;NULL
 p-72                            51                              103                                 121.4007     100.0000     140.0000       0.0000        ;NULL
 p-75                            51                              68                                   38.3929     100.0000     140.0000       0.0000        ;NULL
 p-89                            68                              284                                 174.9392     100.0000     140.0000       0.0000        ;NULL
 p-94                            68                              195                                  94.4223     100.0000     140.0000       0.0000        ;NULL
 p-102                           71                              90                                   59.1817     100.0000     140.0000       0.0000        ;NULL
 p-103                           83                              97                                   50.5833     100.0000     140.0000       0.0000        ;NULL
 p-115                           83                              312                                 150.6437     100.0000     140.0000       0.0000        ;NULL
 p-116                           97                              110                                  54.8594     100.0000     140.0000       0.0000        ;NULL
 p-124                           97                              341                                 153.0360     100.0000     140.0000       0.0000        ;NULL
 p-129                           103                             181                                  62.9645     100.0000     140.0000       0.0000        ;NULL
 p-141                           106                             348                                 191.5084     100.0000     140.0000       0.0000        ;NULL
 p-142                           106                             306                                 130.5892     203.4000     140.0000       0.0000        ;NULL
 p-144                           110                             165                                  36.8559     100.0000     140.0000       0.0000        ;NULL
 p-152                           116                             160                                  69.5312     100.0000     140.0000       0.0000        ;NULL
 p-156                           116                             225                                  68.2499     100.0000     140.0000       0.0000        ;NULL
 p-157                           160                             181                                  21.1878     100.0000     140.0000       0.0000        ;NULL
 p-161                           160                             310                                  88.0902     100.0000     140.0000       0.0000        ;NULL
 p-165                           165                             219                                  69.3517     100.0000     140.0000       0.0000        ;NULL
 p-170                           165                             379                                 120.8578     100.0000     140.0000       0.0000        ;NULL
 p-174                           179                             136                                  63.6575      99.4000     140.0000       0.0000        ;NULL
 p-177                           179                             223                                  79.1993      99.4000     140.0000       0.0000        ;NULL
 p-181                           179                             273                                  62.1118      99.4000     140.0000       0.0000        ;NULL
 p-184                           181                             288                                  90.4280     100.0000     140.0000       0.0000        ;NULL
 p-188                           183                             275                                  59.4582     100.0000     140.0000       0.0000        ;NULL
 p-191                           183                             100                                  50.5081     100.0000     140.0000       0.0000        ;NULL
 p-196                           183                             231                                 149.0672     100.0000     140.0000       0.0000        ;NULL
 p-197                           195                             209                                  29.6151     100.0000     140.0000       0.0000        ;NULL
 p-207                           195                             348                                  89.1269     100.0000     140.0000       0.0000        ;NULL
 p-210                           219                             424                                 181.0860     100.0000     140.0000       0.0000        ;NULL
 p-223                           219                             424                                 142.1454     100.0000     140.0000       0.0000        ;NULL
 p-226                           223                             342                                  63.3155     100.0000     140.0000       0.0000        ;NULL
 p-229                           225                             330                                  58.7749     100.0000     140.0000       0.0000        ;NULL
 p-240                           225                             289                                 189.1365     100.0000     140.0000       0.0000        ;NULL
 p-243                           231                             275                                  79.5381     100.0000     140.0000       0.0000        ;NULL
 p-248                           273                             342                                  90.6440     100.0000     140.0000       0.0000        ;NULL
 p-271                           273                             66                                  297.7050     100.0000     140.0000       0.0000        ;NULL
 p-273                           66                              105                                  73.2969      99.4000     140.0000       0.0000        ;NULL