[TITLE]
Export input file via plugin ImportEpanetInpFiles. 

[JUNCTIONS]
 dist1                                44.9046  ;NULL
 dist11                               38.3133  ;NULL
 dist30                               34.9985  ;NULL
 dist33                               42.5166  ;NULL
 dist35                               39.5344  ;NULL
 dist51                               44.7297  ;NULL
 dist64                               40.0953  ;NULL
 dist66                               33.3585  ;NULL
 dist68                               44.7858  ;NULL
 dist71                               41.6891  ;NULL
 dist78                               27.8630  ;NULL
 dist83                               27.9341  ;NULL
 dist90                               41.0447  ;NULL
 dist97                               27.4972  ;NULL
 dist100                              29.6279  ;NULL
 dist103                              40.8453  ;NULL
 dist105                              32.7029  ;NULL
 dist106                              46.8139  ;NULL
 dist110                              26.8609  ;NULL
 dist115                              26.6279  ;NULL
 dist116                              37.6728  ;NULL
 dist136                              30.8440  ;NULL
 dist160                              38.1186  ;NULL
 dist165                              27.6663  ;NULL
 dist179                              32.5479  ;NULL
 dist181                              38.6199  ;NULL
 dist183                              30.9592  ;NULL
 dist195                              45.5287  ;NULL
 dist209                              44.8216  ;NULL
 dist219                              25.6827  ;NULL
 dist223                              32.0840  ;NULL
 dist225                              38.6298  ;NULL
 dist231                              31.9777  ;NULL
 dist273                              34.4966  ;NULL
 dist275                              31.5784  ;NULL
 dist284                              42.8054  ;NULL
 dist288                              40.8706  ;NULL
 dist289                              38.2158  ;NULL
 dist295                              40.1523  ;NULL
 dist306                              47.7929  ;NULL
 dist310                              39.7646  ;NULL
 dist312                              30.6834  ;NULL
 dist330                              40.9712  ;NULL
 dist337                              47.4150  ;NULL
 dist341                              29.7474  ;NULL
 dist342                              32.7845  ;NULL
 dist348                              44.8275  ;NULL
 dist354                              28.9213  ;NULL
 dist356                              47.1555  ;NULL
 dist361                              46.9499  ;NULL
 dist376                              47.0384  ;NULL
 dist379                              28.0237  ;NULL
 dist383                              38.8366  ;NULL
 dist394                              43.2397  ;NULL
 dist398                              47.2081  ;NULL
 dist399                              41.9837  ;NULL
 dist406                              47.1970  ;NULL
 dist408                              26.3850  ;NULL
 dist412                              32.9427  ;NULL
 dist415                              46.8728  ;NULL
 dist417                              40.6423  ;NULL
 dist420                              34.8072  ;NULL
 dist424                              24.1252  ;NULL
 dist426                              42.8678  ;NULL
 dist439                              24.4629  ;NULL
 dist443                              39.4918  ;NULL
 dist446                              39.3475  ;NULL
 dist458                              33.0587  ;NULL
 dist470                              44.8774  ;NULL
 dist473                              47.9855  ;NULL
 dist485                              44.8384  ;NULL
 dist490                              27.3301  ;NULL
 dist494                              44.6854  ;NULL
 dist504                              41.4989  ;NULL
 dist521                              25.0900  ;NULL
 dist523                              35.6675  ;NULL
 dist525                              35.3257  ;NULL
 dist532                              43.9780  ;NULL
 dist546                              43.4579  ;NULL
 dist555                              50.0388  ;NULL
 dist559                              29.4863  ;NULL
 dist585                              27.9620  ;NULL
 dist592                              41.9834  ;NULL
 dist593                              27.9620  ;NULL
 dist606                              48.5948  ;NULL
 dist616                              26.4847  ;NULL
 dist622                              31.0449  ;NULL
 dist628                              49.7067  ;NULL
 dist631                              41.0665  ;NULL
 dist632                              48.5367  ;NULL
 dist648                              36.0843  ;NULL
 dist650                              30.2842  ;NULL
 dist655                              29.7092  ;NULL
 dist656                              29.7092  ;NULL
 dist679                              39.4896  ;NULL
 dist680                              34.6397  ;NULL
 dist681                              28.5963  ;NULL
 dist688                              53.0145  ;NULL
 dist701                              52.7635  ;NULL
 dist707                              42.3481  ;NULL
 dist708                              37.8774  ;NULL
 dist745                              42.7870  ;NULL
 dist759                              50.9633  ;NULL
 dist772                              41.1400  ;NULL
 dist787                              34.3258  ;NULL
 dist789                              27.6919  ;NULL
 dist806                              38.4995  ;NULL
 dist819                              32.2963  ;NULL
 dist830                              37.7233  ;NULL
 dist839                              43.3456  ;NULL
 dist852                              32.2758  ;NULL
 dist865                              52.7890  ;NULL
 dist885                              30.9825  ;NULL
 dist889                              41.0805  ;NULL
 dist891                              30.3077  ;NULL
 dist896                              35.1235  ;NULL
 dist908                              30.3549  ;NULL
 dist931                              29.6896  ;NULL
 dist932                              56.7959  ;NULL
 dist989                              28.2027  ;NULL
 dist993                              37.4268  ;NULL
 dist996                              50.4585  ;NULL
 dist998                              33.5171  ;NULL
 dist999                              31.9700  ;NULL
 dist1001                             49.9351  ;NULL
 dist1003                             31.0460  ;NULL
 dist1020                             48.5260  ;NULL
 dist1025                             35.5034  ;NULL
 dist1028                             61.1689  ;NULL
 dist1031                             46.4292  ;NULL
 dist1039                             53.9666  ;NULL
 dist1075                             49.2157  ;NULL
 dist1081                             51.3432  ;NULL
 dist1126                             43.0044  ;NULL
 dist1130                             53.7182  ;NULL
 dist1144                             52.2791  ;NULL
 dist1155                             59.4760  ;NULL
 dist1165                             36.8314  ;NULL
 dist1168                             38.2450  ;NULL
 dist1179                             37.9072  ;NULL
 dist1185                             46.6450  ;NULL
 dist1196                             53.3723  ;NULL
 dist1202                             53.0405  ;NULL
 dist1214                             50.9270  ;NULL
 dist1225                             40.7862  ;NULL
 dist1226                             56.2809  ;NULL
 dist1229                             55.9935  ;NULL
 dist1241                             54.0840  ;NULL
 dist1245                             54.0840  ;NULL
 dist1252                             36.5037  ;NULL
 dist1255                             50.8989  ;NULL
 dist1268                             58.1542  ;NULL
 dist1272                             50.7987  ;NULL
 dist1283                             48.6859  ;NULL
 dist1284                             55.1892  ;NULL
 dist1287                             50.2569  ;NULL
 dist1292                             46.9606  ;NULL
 dist1294                             39.1205  ;NULL
 dist1303                             60.1570  ;NULL
 dist1304                             37.7199  ;NULL
 dist1308                             57.2239  ;NULL
 dist1309                             60.3732  ;NULL
 dist1311                             60.5419  ;NULL
 dist1313                             30.9535  ;NULL
 dist1332                             39.1129  ;NULL
 dist1339                             39.7259  ;NULL
 dist1343                             40.1201  ;NULL
 dist1345                             57.2805  ;NULL
 dist1346                             40.4456  ;NULL
 dist1363                             54.7319  ;NULL
 dist1367                             54.9310  ;NULL
 dist1369                             40.9637  ;NULL
 dist1371                             54.0636  ;NULL
 dist1372                             53.6185  ;NULL
 dist1406                             60.5196  ;NULL
 dist1413                             46.8889  ;NULL
 dist1443                             29.4634  ;NULL
 dist1446                             39.2882  ;NULL
 dist1454                             43.7762  ;NULL
 dist1455                             47.6407  ;NULL
 dist1459                             54.4925  ;NULL
 dist1464                             53.1857  ;NULL
 dist1468                             41.8567  ;NULL
 dist1471                             41.7133  ;NULL
 dist1472                             41.7133  ;NULL
 dist1496                             48.3790  ;NULL
 dist1499                             60.2309  ;NULL
 dist1502                             45.3327  ;NULL
 dist1511                             57.9920  ;NULL
 dist1522                             38.0948  ;NULL
 dist1528                             55.8523  ;NULL
 dist1539                             54.3923  ;NULL
 dist1550                             42.4951  ;NULL
 dist1557                             52.8167  ;NULL
 dist1568                             51.6012  ;NULL
 dist1607                             38.7342  ;NULL
 dist1608                             48.5031  ;NULL
 dist1611                             53.5810  ;NULL
 dist1622                             47.3971  ;NULL
 dist1634                             52.0305  ;NULL
 dist1636                             42.6260  ;NULL
 dist1656                             50.5984  ;NULL
 dist1687                             28.7675  ;NULL
 dist1689                             38.8511  ;NULL
 dist1694                             34.4048  ;NULL
 dist1702                             51.4711  ;NULL
 dist1722                             58.8489  ;NULL
 dist1723                             49.8668  ;NULL
 dist1740                             42.6159  ;NULL
 dist1741                             57.3208  ;NULL
 dist1765                             55.1422  ;NULL
 dist1768                             30.2299  ;NULL
 dist1769                             30.2639  ;NULL
 dist1770                             40.2585  ;NULL
 dist1786                             29.7674  ;NULL
 dist1788                             52.9070  ;NULL
 dist1801                             46.9169  ;NULL
 dist1802                             38.5689  ;NULL
 dist1808                             58.1493  ;NULL
 dist1812                             32.6888  ;NULL
 dist1829                             44.4734  ;NULL
 dist1840                             54.7464  ;NULL
 dist1843                             54.8341  ;NULL
 dist1850                             53.4263  ;NULL
 dist1854                             35.2252  ;NULL
 dist1869                             50.2970  ;NULL
 dist1876                             27.5012  ;NULL
 dist1877                             40.2479  ;NULL
 dist1878                             29.4137  ;NULL
 dist1887                             41.9888  ;NULL
 dist1892                             42.5352  ;NULL
 dist1893                             27.2930  ;NULL
 dist1900                             44.1901  ;NULL
 dist1901                             29.4679  ;NULL
 dist1903                             44.7870  ;NULL
 dist1906                             46.0199  ;NULL
 dist1915                             47.6338  ;NULL
 dist1924                             37.7610  ;NULL
 dist1931                             34.3322  ;NULL
 dist1936                             37.0560  ;NULL
 dist1944                             38.4651  ;NULL
 dist1962                             43.2149  ;NULL
 dist1973                             53.5440  ;NULL
 dist1975                             49.1289  ;NULL
 dist1978                             54.5702  ;NULL
 dist1979                             51.4095  ;NULL
 dist1984                             52.3645  ;NULL
 dist1987                             52.2466  ;NULL
 dist1988                             53.8343  ;NULL
 dist412_new                          32.9427  ;NULL
 38                                   40.2532  ;NULL
 44                                   38.7687  ;217
 45                                   38.6177  ;NULL
 46                                   38.7711  ;NULL
 47                                   38.5825  ;216
 78                                   34.2381  ;220
 81                                   34.8008  ;NULL
 89                                   33.6208  ;221
 93                                   33.7852  ;NULL
 134                                  34.1213  ;222
 136                                  33.7345  ;NULL
 137                                  33.7441  ;NULL
 192                                  35.9275  ;223
 193                                  35.5452  ;NULL
 194                                  35.4980  ;NULL
 202                                  35.9393  ;NULL
 206                                  35.0988  ;225
 215                                  38.6467  ;224
 220                                  38.5402  ;NULL
 222                                  39.3022  ;NULL
 229                                  36.2504  ;226
 232                                  45.9747  ;229
 240                                  41.2453  ;NULL
 278                                  40.9173  ;228
 292                                  39.6981  ;NULL
 296                                  38.8693  ;NULL
 348                                  45.8900  ;227
 350                                  46.3703  ;NULL
 406                                  83.0877  ;NULL
 408                                  86.2383  ;NULL
 414                                  94.9758  ;NULL
 419                                  94.9044  ;NULL
 423                                  60.3829  ;NULL
 425                                  60.6014  ;NULL
 426                                  60.5606  ;NULL
 427                                  60.5676  ;NULL
 519                                  57.6260  ;232
 520                                  57.7809  ;NULL
 542                                  38.6477  ;NULL
 543                                  38.0464  ;231
 544                                  39.4247  ;233
 545                                  48.8741  ;NULL
 546                                  50.7104  ;NULL
 555                                  48.5852  ;234
 N13                                 138.7435  ;NULL
 N14                                  87.7273  ;NULL
 N15                                  75.0217  ;ExtraZones
 N17                                  90.4005  ;NULL
 N18                                  89.9557  ;NULL
 240-1                                40.9031  ;NULL
 N15_1                                75.0210  ;NULL
 415                                  94.9349  ;NULL
 410                                  98.6510  ;Zone4
 293                                 131.7068  ;Zone3
 1                                    90.0000  ;Charaki
 2                                    90.0000  ;Jacket
 3                                    90.0000  ;Levanta

[RESERVOIRS]
 WTP                                 155.0000                                 ;NULL
 Desalination                        155.0000                                 ;NULL

[TANKS]
 T_Zone2                              89.0000       6.0000       0.0000       7.0000      55.6261       0.0000                                 ;NULL

[PIPES]
 dist1                           dist1769                        dist1786                             28.2925     100.0000     140.0000       0.0000        ;NULL
 dist2                           dist1768                        dist1769                              1.0757     100.0000     140.0000       0.0000        ;NULL
 dist3                           dist891                         dist908                               9.6438     100.0000     140.0000       0.0000        ;NULL
 dist4                           dist78                          dist83                               20.9961     100.0000     140.0000       0.0000        ;NULL
 dist5                           dist110                         dist115                              11.1679     100.0000     140.0000       0.0000        ;NULL
 dist6                           dist1607                        dist1689                             53.3925     100.0000     140.0000       0.0000        ;NULL
 dist7                           dist996                         dist1001                             21.3063     100.0000     140.0000       0.0000        ;NULL
 dist8                           dist446                         dist443                              14.8284     100.0000     140.0000       0.0000        ;NULL
 dist9                           dist458                         dist412                              34.3359     100.0000     140.0000       0.0000        ;NULL
 dist10                          dist426                         dist399                              17.0184     100.0000     140.0000       0.0000        ;NULL
 dist11                          dist1722                        dist1741                             53.4915     100.0000     140.0000       0.0000        ;NULL
 dist12                          dist424                         dist439                              15.4817     100.0000     140.0000       0.0000        ;NULL
 dist13                          dist585                         dist593                               3.7069     100.0000     140.0000       0.0000        ;NULL
 dist14                          dist655                         dist656                               0.6531     100.0000     140.0000       0.0000        ;NULL
 dist15                          dist1339                        dist1332                             25.1853     100.0000     140.0000       0.0000        ;NULL
 dist16                          dist1346                        dist1339                             14.6896     100.0000     140.0000       0.0000        ;NULL
 dist17                          dist1471                        dist1472                              0.8122     100.0000     140.0000       0.0000        ;NULL
 dist18                          dist1877                        dist1944                             43.8126     100.0000     140.0000       0.0000        ;NULL
 dist19                          dist1367                        dist1363                              3.6072     200.0000     140.0000       0.0000        ;NULL
 dist20                          dist223                         dist231                               8.1243      99.4000     140.0000       0.0000        ;NULL
 dist21                          dist356                         dist306                              29.5572     144.6000     140.0000       0.0000        ;NULL
 dist22                          dist1303                        dist1309                              6.1455     203.4000     140.0000       0.0000        ;NULL
 dist23                          dist1309                        dist1311                              2.0603     203.4000     140.0000       0.0000        ;NULL
 dist24                          dist525                         dist523                               2.7992     100.0000     140.0000       0.0000        ;NULL
 dist25                          dist356                         dist376                               9.4412     144.6000     140.0000       0.0000        ;NULL
 dist26                          dist1245                        dist1241                              2.9179      40.0000     140.0000       0.0000        ;NULL
 dist27                          dist546                         dist532                              56.4744     150.0000     140.0000       0.0000        ;NULL
 dist28                          dist1840                        dist1765                             39.9503     150.0000     140.0000       0.0000        ;NULL
 dist29                          dist1229                        dist1226                              4.2895     150.0000     140.0000       0.0000        ;NULL
 dist30                          dist1840                        dist1843                              2.6326     150.0000     140.0000       0.0000        ;NULL
 dist32                          dist71                          dist103                              36.8594     100.0000     140.0000       0.0000        ;NULL
 dist33                          dist356                         dist361                               7.8644     144.6000     140.0000       0.0000        ;NULL
 dist34                          dist376                         dist398                               9.8851     144.6000     140.0000       0.0000        ;NULL
 dist35                          dist1028                        dist1268                            173.3528     203.4000     140.0000       0.0000        ;NULL
 dist36                          dist1168                        dist1179                              9.1688      99.4000     140.0000       0.0000        ;NULL
 dist37                          dist1255                        dist1272                             11.1535     100.0000     140.0000       0.0000        ;NULL
 dist38                          dist1255                        dist1283                             82.2323     100.0000     140.0000       0.0000        ;NULL
 dist39                          dist1268                        dist1303                             35.1815     203.4000     140.0000       0.0000        ;NULL
 dist40                          dist1283                        dist1292                             59.7608     100.0000     140.0000       0.0000        ;NULL
 dist41                          dist1303                        dist1345                            100.5644     100.0000     140.0000       0.0000        ;NULL
 dist42                          dist1311                        dist1406                             90.1040      99.4000     140.0000       0.0000        ;NULL
 dist43                          dist1371                        dist1372                              7.3648     150.0000     140.0000       0.0000        ;NULL
 dist44                          dist1406                        dist1499                             60.1268     100.0000     140.0000       0.0000        ;NULL
 dist45                          dist1468                        dist1471                              5.6147     100.0000     140.0000       0.0000        ;NULL
 dist46                          dist1634                        dist1656                             54.4306     100.0000     140.0000       0.0000        ;NULL
 dist47                          dist1722                        dist1808                             53.4601     100.0000     140.0000       0.0000        ;NULL
 dist48                          dist1878                        dist1901                              9.5940      99.4000     140.0000       0.0000        ;NULL
 dist49                          dist1924                        dist1936                             21.3868      99.4000     140.0000       0.0000        ;NULL
 dist50                          dist1854                        dist1931                             51.6833      99.4000     140.0000       0.0000        ;NULL
 dist51                          dist1973                        dist1984                             40.0132     200.0000     140.0000       0.0000        ;NULL
 dist52                          dist1984                        dist1987                              8.5205     200.0000     140.0000       0.0000        ;NULL
 dist313                         dist1893                        dist1876                              6.3856     144.6000     140.0000       0.0000        ;NULL
 dist1016                        dist819                         dist852                              15.6798     100.0000     140.0000       0.0000 CLOSED ;NULL
 dist1022                        dist650                         dist655                              20.8210     100.0000     140.0000       0.0000 CLOSED ;NULL
 dist1920                        dist1768                        dist1769                              1.0757     100.0000     140.0000       0.0000        ;NULL
 78                              136                             93                                  560.1381     300.0000     140.0000       0.0000        ;NULL
 89                              45                              38                                  271.3823     300.0000     140.0000       0.0000        ;NULL
 90                              81                              45                                  692.3607     300.0000     140.0000       0.0000        ;NULL
 91                              93                              81                                  142.4850     300.0000     140.0000       0.0000        ;NULL
 103                             296                             350                                 777.2579     400.0000     140.0000       0.0000        ;NULL
 224                             544                             542                                  37.5646     200.0000     140.0000       0.0000        ;NULL
 256                             546                             520                                1062.7587     400.0000     140.0000       0.0000        ;NULL
 257                             296                             292                                  10.9610     400.0000     140.0000       0.0000        ;NULL
 294                             419                             520                                1212.3431     400.0000     140.0000       0.0000        ;NULL
 310                             425                             426                                   2.9280     450.0000     140.0000       0.0000        ;NULL
 311                             426                             427                                   4.3821     450.0000     140.0000       0.0000        ;NULL
 329                             136                             137                                   0.5139     350.0000     140.0000       0.0000        ;NULL
 333                             137                             193                                 622.4940     350.0000     140.0000       0.0000        ;NULL
 334                             193                             194                                   3.3914     350.0000     140.0000       0.0000        ;NULL
 412                             89                              93                                   16.1575     203.4000     140.0000       0.0000        ;NULL
 413                             542                             543                                  26.7988     203.4000     140.0000       0.0000        ;NULL
 468                             81                              78                                   50.9726     200.0000     140.0000       0.0000        ;NULL
 492                             193                             192                                  30.9328     250.0000     140.0000       0.0000        ;NULL
 496                             545                             542                                 419.3091     250.0000     140.0000       0.0000        ;NULL
 497                             222                             229                                 180.0464     250.0000     140.0000       0.0000        ;NULL
 498                             519                             520                                  52.9312     250.0000     140.0000       0.0000        ;NULL
 499                             137                             134                                  27.8316     250.0000     140.0000       0.0000        ;NULL
 516                             555                             545                                  28.3801     250.0000     140.0000       0.0000        ;NULL
 524                             546                             545                                  48.3337     250.0000     140.0000       0.0000        ;NULL
 533                             194                             202                                 287.4312     400.0000     140.0000       0.0000        ;NULL
 537                             425                             350                                1010.2994     400.0000     140.0000       0.0000        ;NULL
 539                             240                             232                                 323.7777     250.0000     140.0000       0.0000        ;NULL